CM --- NEC2 Input File created or edited by xnec2c 4.1.1 ---
CE --- End Comments ---
GW     1     1   0.00000E+00  0.00000E+00  0.00000E+00 -8.99555E-02 -1.60580E-01  4.40245E-01
GW     2     1  -8.99555E-02 -1.60580E-01  4.40245E-01 -4.83415E-01 -3.08037E-01  3.10348E-01
GW     3     1  -4.83415E-01 -3.08037E-01  3.10348E-01  4.48995E-01 -8.15292E-02  8.00700E-02
GE     0     0   0.00000E+00  0.00000E+00  0.00000E+00  0.00000E+00  0.00000E+00  0.00000E+00  0.00000E+00
EX     1   360   360     0  0.00000E+00  0.00000E+00  0.00000E+00  1.00000E+00  1.00000E+00  1.00000E+00
RP     0   100   100      0  0.00000E+00  0.00000E+00  3.60000E+00  3.60000E+00  0.00000E+00  0.00000E+00
FR     0     1     0      0   1.69194E+03  1.00000E+00  1.69194E+03  0.00000E+00  0.00000E+00  0.00000E+00
NH     0     1     1      1  0.00000E+00  0.00000E+00  0.00000E+00  0.00000E+00  0.00000E+00  0.00000E+00
NE     0    10     1     10 -1.35000E+00  0.00000E+00 -1.35000E+00  3.00000E-01  0.00000E+00  3.00000E-01
EN     0     0     0      0  0.00000E+00  0.00000E+00  0.00000E+00  0.00000E+00  0.00000E+00  0.00000E+00