CM --- NEC2 Input File created or edited by xnec2c 4.1.1 ---
CE --- End Comments ---
GW     1     1   0.00000E+00  0.00000E+00  0.00000E+00 -8.99555E-02 -1.60580E-01  4.40245E-01
GW     2     1  -8.99555E-02 -1.60580E-01  4.40245E-01 -4.83415E-01 -3.08037E-01  3.10348E-01
GW     3     1  -4.83415E-01 -3.08037E-01  3.10348E-01  4.48995E-01 -8.15292E-02  8.00700E-02
